CM Default antenna name
CE
GW 1 35 4.497460e-01 -7.127774e-02 0.000000e+00 4.497460e-01 7.127774e-02 0.000000e+00 2.500000e-02
GW 2 35 4.497460e-01 -7.127774e-02 0.000000e+00 1.007508e+00 -7.127774e-02 0.000000e+00 2.500000e-02
GW 3 35 4.497460e-01 7.127774e-02 0.000000e+00 1.007508e+00 7.127774e-02 0.000000e+00 2.500000e-02
GE 0 0 0.000000e+00 0.000000e+00 0.000000e+00 0.000000e+00 0.000000e+00 0.000000e+00 0.000000e+00
EX 0 1 18 0 0.000000e+00 0.000000e+00 0.000000e+00 0.000000e+00 0.000000e+00
EN 0 0 0 0 0.000000e+00 0.000000e+00 0.000000e+00 0.000000e+00 0.000000e+00
