CM Default antenna name
CE
GW 1 35 3.274729e+00 -3.099571e-01 0.000000e+00 3.274729e+00 3.099571e-01 0.000000e+00 2.500000e-02
GW 2 35 3.274729e+00 -3.099571e-01 0.000000e+00 -2.829416e-01 -3.099571e-01 0.000000e+00 2.500000e-02
GW 3 35 3.274729e+00 3.099571e-01 0.000000e+00 -2.829416e-01 3.099571e-01 0.000000e+00 2.500000e-02
GW 4 35 4.030298e-01 -4.384166e-02 0.000000e+00 4.030298e-01 4.384166e-02 0.000000e+00 2.500000e-02
GW 5 35 4.030298e-01 -4.384166e-02 0.000000e+00 -1.408952e+00 -4.384166e-02 0.000000e+00 2.500000e-02
GW 6 35 4.030298e-01 4.384166e-02 0.000000e+00 -1.408952e+00 4.384166e-02 0.000000e+00 2.500000e-02
GE 0 0 0.000000e+00 0.000000e+00 0.000000e+00 0.000000e+00 0.000000e+00 0.000000e+00 0.000000e+00
EX 0 4 18 0 0.000000e+00 0.000000e+00 0.000000e+00 0.000000e+00 0.000000e+00
EN 0 0 0 0 0.000000e+00 0.000000e+00 0.000000e+00 0.000000e+00 0.000000e+00
