CM Default antenna name
CE
GW 1 35 2.843434e+00 -1.513701e+00 0.000000e+00 2.843434e+00 1.513701e+00 0.000000e+00 2.500000e-02
GW 2 35 2.843434e+00 -1.513701e+00 0.000000e+00 -1.097009e+00 -1.513701e+00 0.000000e+00 2.500000e-02
GW 3 35 2.843434e+00 1.513701e+00 0.000000e+00 -1.097009e+00 1.513701e+00 0.000000e+00 2.500000e-02
GW 4 35 9.363555e-01 -1.298777e+00 0.000000e+00 9.363555e-01 1.298777e+00 0.000000e+00 2.500000e-02
GW 5 35 9.363555e-01 -1.298777e+00 0.000000e+00 -3.276603e-01 -1.298777e+00 0.000000e+00 2.500000e-02
GW 6 35 9.363555e-01 1.298777e+00 0.000000e+00 -3.276603e-01 1.298777e+00 0.000000e+00 2.500000e-02
GW 7 35 1.114286e+00 -1.072850e+00 0.000000e+00 1.114286e+00 1.072850e+00 0.000000e+00 2.500000e-02
GW 8 35 1.114286e+00 -1.072850e+00 0.000000e+00 3.254187e+00 -1.072850e+00 0.000000e+00 2.500000e-02
GW 9 35 1.114286e+00 1.072850e+00 0.000000e+00 3.254187e+00 1.072850e+00 0.000000e+00 2.500000e-02
GW 10 35 9.363555e-01 -1.298777e+00 0.000000e+00 9.363555e-01 1.298777e+00 0.000000e+00 2.500000e-02
GW 11 35 9.363555e-01 -1.298777e+00 0.000000e+00 -3.276603e-01 -1.298777e+00 0.000000e+00 2.500000e-02
GW 12 35 9.363555e-01 1.298777e+00 0.000000e+00 -3.276603e-01 1.298777e+00 0.000000e+00 2.500000e-02
GE 0 0 0.000000e+00 0.000000e+00 0.000000e+00 0.000000e+00 0.000000e+00 0.000000e+00 0.000000e+00
EX 0 1 18 0 0.000000e+00 0.000000e+00 0.000000e+00 0.000000e+00 0.000000e+00
EX 0 4 18 0 0.000000e+00 0.000000e+00 0.000000e+00 0.000000e+00 0.000000e+00
FR 0 5 0 0 1.440000e+02 5.000000e-01 0.000000e+00 0.000000e+00 0.000000e+00 0.000000e+00
RP 0 21 21 1400 0.000000e+00 -1.800000e+02 9.000000e+00 1.800000e+01 0.000000e+00 0.000000e+00
EN 0 0 0 0 0.000000e+00 0.000000e+00 0.000000e+00 0.000000e+00 0.000000e+00
