CM Default antenna name
CE
GW 1 35 5.789971e-01 -9.071835e-01 0.000000e+00 5.789971e-01 9.071835e-01 0.000000e+00 2.500000e-02
GW 2 35 5.789971e-01 -9.071835e-01 0.000000e+00 2.567782e+00 -9.071835e-01 0.000000e+00 2.500000e-02
GW 3 35 5.789971e-01 9.071835e-01 0.000000e+00 2.567782e+00 9.071835e-01 0.000000e+00 2.500000e-02
GW 4 35 3.661864e+00 -1.574151e+00 0.000000e+00 3.661864e+00 1.574151e+00 0.000000e+00 2.500000e-02
GW 5 35 3.661864e+00 -1.574151e+00 0.000000e+00 6.152738e+00 -1.574151e+00 0.000000e+00 2.500000e-02
GW 6 35 3.661864e+00 1.574151e+00 0.000000e+00 6.152738e+00 1.574151e+00 0.000000e+00 2.500000e-02
GW 7 35 3.824079e+00 -2.774400e-01 0.000000e+00 3.824079e+00 2.774400e-01 0.000000e+00 2.500000e-02
GW 8 35 3.824079e+00 -2.774400e-01 0.000000e+00 3.223497e+00 -2.774400e-01 0.000000e+00 2.500000e-02
GW 9 35 3.824079e+00 2.774400e-01 0.000000e+00 3.223497e+00 2.774400e-01 0.000000e+00 2.500000e-02
GW 10 35 1.759537e+00 -1.921648e+00 0.000000e+00 1.759537e+00 1.921648e+00 0.000000e+00 2.500000e-02
GW 11 35 1.759537e+00 -1.921648e+00 0.000000e+00 -2.011280e+00 -1.921648e+00 0.000000e+00 2.500000e-02
GW 12 35 1.759537e+00 1.921648e+00 0.000000e+00 -2.011280e+00 1.921648e+00 0.000000e+00 2.500000e-02
GW 13 35 1.647747e+00 -6.086325e-01 0.000000e+00 1.647747e+00 6.086325e-01 0.000000e+00 2.500000e-02
GW 14 35 1.647747e+00 -6.086325e-01 0.000000e+00 -1.991006e+00 -6.086325e-01 0.000000e+00 2.500000e-02
GW 15 35 1.647747e+00 6.086325e-01 0.000000e+00 -1.991006e+00 6.086325e-01 0.000000e+00 2.500000e-02
GE 0 0 0.000000e+00 0.000000e+00 0.000000e+00 0.000000e+00 0.000000e+00 0.000000e+00 0.000000e+00
EX 0 4 18 0 0.000000e+00 0.000000e+00 0.000000e+00 0.000000e+00 0.000000e+00
EX 0 7 18 0 0.000000e+00 0.000000e+00 0.000000e+00 0.000000e+00 0.000000e+00
EX 0 10 18 0 0.000000e+00 0.000000e+00 0.000000e+00 0.000000e+00 0.000000e+00
EX 0 13 18 0 0.000000e+00 0.000000e+00 0.000000e+00 0.000000e+00 0.000000e+00
FR 0 5 0 0 1.440000e+02 5.000000e-01 0.000000e+00 0.000000e+00 0.000000e+00 0.000000e+00
RP 0 21 21 1400 0.000000e+00 -1.800000e+02 9.000000e+00 1.800000e+01 0.000000e+00 0.000000e+00
EN 0 0 0 0 0.000000e+00 0.000000e+00 0.000000e+00 0.000000e+00 0.000000e+00
