CM Default antenna name
CE
GW 1 35 1.921932e+00 -1.366634e+00 0.000000e+00 1.921932e+00 1.366634e+00 0.000000e+00 2.500000e-02
GW 2 35 1.921932e+00 -1.366634e+00 0.000000e+00 -1.983904e+00 -1.366634e+00 0.000000e+00 2.500000e-02
GW 3 35 1.921932e+00 1.366634e+00 0.000000e+00 -1.983904e+00 1.366634e+00 0.000000e+00 2.500000e-02
GW 4 35 3.133184e+00 -6.902349e-01 0.000000e+00 3.133184e+00 6.902349e-01 0.000000e+00 2.500000e-02
GW 5 35 3.133184e+00 -6.902349e-01 0.000000e+00 1.768980e+00 -6.902349e-01 0.000000e+00 2.500000e-02
GW 6 35 3.133184e+00 6.902349e-01 0.000000e+00 1.768980e+00 6.902349e-01 0.000000e+00 2.500000e-02
GW 7 35 2.657014e-01 -9.205083e-01 0.000000e+00 2.657014e-01 9.205083e-01 0.000000e+00 2.500000e-02
GW 8 35 2.657014e-01 -9.205083e-01 0.000000e+00 1.154725e-01 -9.205083e-01 0.000000e+00 2.500000e-02
GW 9 35 2.657014e-01 9.205083e-01 0.000000e+00 1.154725e-01 9.205083e-01 0.000000e+00 2.500000e-02
GE 0 0 0.000000e+00 0.000000e+00 0.000000e+00 0.000000e+00 0.000000e+00 0.000000e+00 0.000000e+00
EX 0 1 18 0 0.000000e+00 0.000000e+00 0.000000e+00 0.000000e+00 0.000000e+00
FR 0 5 0 0 1.440000e+02 5.000000e-01 0.000000e+00 0.000000e+00 0.000000e+00 0.000000e+00
RP 0 21 21 1400 0.000000e+00 -1.800000e+02 9.000000e+00 1.800000e+01 0.000000e+00 0.000000e+00
EN 0 0 0 0 0.000000e+00 0.000000e+00 0.000000e+00 0.000000e+00 0.000000e+00
