CM Default antenna name
CE
GW 1 35 2.308201e+00 -2.061091e-01 0.000000e+00 2.308201e+00 2.061091e-01 0.000000e+00 2.500000e-02
GW 2 35 2.308201e+00 -2.061091e-01 0.000000e+00 3.385344e+00 -2.061091e-01 0.000000e+00 2.500000e-02
GW 3 35 2.308201e+00 2.061091e-01 0.000000e+00 3.385344e+00 2.061091e-01 0.000000e+00 2.500000e-02
GW 4 35 1.011432e+00 -2.434726e-01 0.000000e+00 1.011432e+00 2.434726e-01 0.000000e+00 2.500000e-02
GW 5 35 1.011432e+00 -2.434726e-01 0.000000e+00 9.371077e-01 -2.434726e-01 0.000000e+00 2.500000e-02
GW 6 35 1.011432e+00 2.434726e-01 0.000000e+00 9.371077e-01 2.434726e-01 0.000000e+00 2.500000e-02
GW 7 35 1.011432e+00 -2.434726e-01 0.000000e+00 1.011432e+00 2.434726e-01 0.000000e+00 2.500000e-02
GW 8 35 1.011432e+00 -2.434726e-01 0.000000e+00 9.371077e-01 -2.434726e-01 0.000000e+00 2.500000e-02
GW 9 35 1.011432e+00 2.434726e-01 0.000000e+00 9.371077e-01 2.434726e-01 0.000000e+00 2.500000e-02
GW 10 35 2.940427e+00 -1.076234e+00 0.000000e+00 2.940427e+00 1.076234e+00 0.000000e+00 2.500000e-02
GW 11 35 2.940427e+00 -1.076234e+00 0.000000e+00 3.012221e+00 -1.076234e+00 0.000000e+00 2.500000e-02
GW 12 35 2.940427e+00 1.076234e+00 0.000000e+00 3.012221e+00 1.076234e+00 0.000000e+00 2.500000e-02
GW 13 35 2.308201e+00 -2.061091e-01 0.000000e+00 2.308201e+00 2.061091e-01 0.000000e+00 2.500000e-02
GW 14 35 2.308201e+00 -2.061091e-01 0.000000e+00 3.385344e+00 -2.061091e-01 0.000000e+00 2.500000e-02
GW 15 35 2.308201e+00 2.061091e-01 0.000000e+00 3.385344e+00 2.061091e-01 0.000000e+00 2.500000e-02
GE 0 0 0.000000e+00 0.000000e+00 0.000000e+00 0.000000e+00 0.000000e+00 0.000000e+00 0.000000e+00
EX 0 4 18 0 0.000000e+00 0.000000e+00 0.000000e+00 0.000000e+00 0.000000e+00
EX 0 7 18 0 0.000000e+00 0.000000e+00 0.000000e+00 0.000000e+00 0.000000e+00
EX 0 10 18 0 0.000000e+00 0.000000e+00 0.000000e+00 0.000000e+00 0.000000e+00
FR 0 5 0 0 1.440000e+02 5.000000e-01 0.000000e+00 0.000000e+00 0.000000e+00 0.000000e+00
RP 0 21 21 1400 0.000000e+00 -1.800000e+02 9.000000e+00 1.800000e+01 0.000000e+00 0.000000e+00
EN 0 0 0 0 0.000000e+00 0.000000e+00 0.000000e+00 0.000000e+00 0.000000e+00
