CM Default antenna name
CE
GW 1 35 2.953291e+00 -2.480471e-01 0.000000e+00 2.953291e+00 2.480471e-01 0.000000e+00 2.500000e-02
GW 2 35 2.953291e+00 -2.480471e-01 0.000000e+00 4.035732e+00 -2.480471e-01 0.000000e+00 2.500000e-02
GW 3 35 2.953291e+00 2.480471e-01 0.000000e+00 4.035732e+00 2.480471e-01 0.000000e+00 2.500000e-02
GE 0 0 0.000000e+00 0.000000e+00 0.000000e+00 0.000000e+00 0.000000e+00 0.000000e+00 0.000000e+00
EX 0 1 18 0 0.000000e+00 0.000000e+00 0.000000e+00 0.000000e+00 0.000000e+00
FR 0 5 0 0 1.440000e+02 5.000000e-01 0.000000e+00 0.000000e+00 0.000000e+00 0.000000e+00
RP 0 21 21 1400 0.000000e+00 -1.800000e+02 9.000000e+00 1.800000e+01 0.000000e+00 0.000000e+00
EN 0 0 0 0 0.000000e+00 0.000000e+00 0.000000e+00 0.000000e+00 0.000000e+00
