CM Default antenna name
CE
GW 1 35 4.030298e-01 -4.384166e-02 0.000000e+00 4.030298e-01 4.384166e-02 0.000000e+00 2.500000e-02
GW 2 35 4.030298e-01 -4.384166e-02 0.000000e+00 -1.408952e+00 -4.384166e-02 0.000000e+00 2.500000e-02
GW 3 35 4.030298e-01 4.384166e-02 0.000000e+00 -1.408952e+00 4.384166e-02 0.000000e+00 2.500000e-02
GW 4 35 5.148472e-01 -1.233215e+00 0.000000e+00 5.148472e-01 1.233215e+00 0.000000e+00 2.500000e-02
GW 5 35 5.148472e-01 -1.233215e+00 0.000000e+00 2.879899e+00 -1.233215e+00 0.000000e+00 2.500000e-02
GW 6 35 5.148472e-01 1.233215e+00 0.000000e+00 2.879899e+00 1.233215e+00 0.000000e+00 2.500000e-02
GW 7 35 4.030298e-01 -4.384166e-02 0.000000e+00 4.030298e-01 4.384166e-02 0.000000e+00 2.500000e-02
GW 8 35 4.030298e-01 -4.384166e-02 0.000000e+00 -1.408952e+00 -4.384166e-02 0.000000e+00 2.500000e-02
GW 9 35 4.030298e-01 4.384166e-02 0.000000e+00 -1.408952e+00 4.384166e-02 0.000000e+00 2.500000e-02
GE 0 0 0.000000e+00 0.000000e+00 0.000000e+00 0.000000e+00 0.000000e+00 0.000000e+00 0.000000e+00
EX 0 1 18 0 0.000000e+00 0.000000e+00 0.000000e+00 0.000000e+00 0.000000e+00
EX 0 4 18 0 0.000000e+00 0.000000e+00 0.000000e+00 0.000000e+00 0.000000e+00
EX 0 7 18 0 0.000000e+00 0.000000e+00 0.000000e+00 0.000000e+00 0.000000e+00
FR 0 5 0 0 1.440000e+02 5.000000e-01 0.000000e+00 0.000000e+00 0.000000e+00 0.000000e+00
RP 0 21 21 1400 0.000000e+00 -1.800000e+02 9.000000e+00 1.800000e+01 0.000000e+00 0.000000e+00
EN 0 0 0 0 0.000000e+00 0.000000e+00 0.000000e+00 0.000000e+00 0.000000e+00
